9
ethanol_conf2
C    0.00000000  0.00000000  0.00000000
C    1.48013500 -0.00724300  0.39442200
O    2.00696300  1.29224100  0.26232800
H    2.91547900  1.25572900  0.50972300
H    1.61500700 -0.32678000  1.45587700
H    2.07197500 -0.68695100 -0.26493400
H   -0.32500012  1.02293415 -0.30034094
H   -0.18892141 -0.68463906 -0.85893815
H   -0.64257065 -0.32709111  0.84987482