9
ethanol_conf1
C    0.00000000  0.00000000  0.00000000
C    1.48805540 -0.00728176  0.39653260
O    2.04971655  1.37648153  0.25604810
H    3.06429978  1.37151670  0.52641124
H    1.58679428 -0.33618761  1.43102358
H    2.03441010 -0.68906454 -0.25521028
H   -0.40814044 -1.00553466  0.10208540
H   -0.54635470  0.68178278  0.65174288
H   -0.09873888  0.32890585 -1.03449097