13
conformer_1
C 1.18807296   0.00000000  -0.00000000
H 1.73769890  -0.94942350   0.00040129
C 2.05994583   1.23628674  -0.00376657
H 2.64872469   1.18261093   0.91290488
C 1.23262322   2.51828219   0.00000000
H 0.63081383   2.59153195  -0.89895304
H 0.55974355   2.54752416   0.84822128
H 1.88167197   3.38672974   0.04717944
O 0.00000000   0.00000000   0.00000000
C 3.03702733   1.16659508  -1.18689891
H 2.50542875   1.21333731  -2.13258966
H 3.61923181   0.24993306  -1.17312032
H 3.73109559   1.99885781  -1.15280577